cgmes/cgmes-conversion/src/test/resources/cim14/tx-from-microBE-adapted.xiidm
<?xml version='1.0' encoding='UTF-8'?>
<iidm:network xmlns:iidm="http://www.powsybl.org/schema/iidm/1_2" id="tx-from-microBE-adapted" caseDate="2019-04-01T15:09:53.597+02:00" forecastDistance="0" sourceFormat="CIM1">
    <iidm:substation id="_37e14a0f-5e34-4647-a062-8bfd9305fa9d" name="PP_Brussels" geographicalTags="_c1d5bfc88f8011e08e4d00247eb1f55e">
        <iidm:voltageLevel id="_GRID_VL" name="GRID_VL" nominalV="110.0" topologyKind="BUS_BREAKER">
            <iidm:busBreakerTopology>
                <iidm:bus id="_GRID_TN" v="115.5" angle="-9.391329765319824"/>
            </iidm:busBreakerTopology>
            <iidm:load id="_LOAD" name="LOAD" loadType="UNDEFINED" p0="89.68599700927734" q0="-57.13199996948242" bus="_GRID_TN" connectableBus="_GRID_TN" p="89.68599700927734" q="-57.13199996948242"/>
        </iidm:voltageLevel>
        <iidm:voltageLevel id="_GEN_VL" name="GEN_VL" nominalV="10.5" topologyKind="BUS_BREAKER">
            <iidm:busBreakerTopology>
                <iidm:bus id="_GEN_TN" v="10.820804595947266" angle="-7.057179927825928"/>
            </iidm:busBreakerTopology>
            <iidm:generator id="_BE-G1_SM" name="BE-G1" energySource="OTHER" minP="0.0" maxP="100.0" voltageRegulatorOn="false" targetP="90.0" targetQ="-51.11600112915039" bus="_GEN_TN" connectableBus="_GEN_TN" p="-90.0" q="51.11600112915039">
                <iidm:minMaxReactiveLimits minQ="-999.0" maxQ="999.0"/>
            </iidm:generator>
        </iidm:voltageLevel>
        <iidm:twoWindingsTransformer id="_e482b89a-fa84-4ea9-8e70-a83d44790957" name="BE-TR2_3" r="9.481463930569589E-4" x="0.05291150510311127" g="0.0019138280767947435" b="-0.009170063771307468" ratedU1="110.34375" ratedU2="10.5" bus1="_GRID_TN" connectableBus1="_GRID_TN" voltageLevelId1="_GRID_VL" bus2="_GEN_TN" connectableBus2="_GEN_TN" voltageLevelId2="_GEN_VL">
            <iidm:ratioTapChanger lowTapPosition="1" tapPosition="18" loadTapChangingCapabilities="false">
                <iidm:step r="-23.961603659057573" x="-23.961603659057573" g="31.512505276437007" b="31.512505276437007" rho="0.871999979019165"/>
                <iidm:step r="-22.560000839233396" x="-22.560000839233396" g="29.132232804391567" b="29.132232804391567" rho="0.8799999952316284"/>
                <iidm:step r="-21.145597967529284" x="-21.145597967529284" g="26.816001925703436" b="26.816001925703436" rho="0.8880000114440918"/>
                <iidm:step r="-19.718395043945236" x="-19.718395043945236" g="24.56153567774195" b="24.56153567774195" rho="0.8960000276565552"/>
                <iidm:step r="-18.278402845001196" x="-18.278402845001196" g="22.366673537147253" b="22.366673537147253" rho="0.9039999842643738"/>
                <iidm:step r="-16.825599913024902" x="-16.825599913024902" g="20.229301197760897" b="20.229301197760897" rho="0.9120000004768372"/>
                <iidm:step r="-15.359996929168673" x="-15.359996929168673" g="18.14744372860502" b="18.14744372860502" rho="0.9200000166893005"/>
                <iidm:step r="-13.881604956054616" x="-13.881604956054616" g="16.11921001195038" b="16.11921001195038" rho="0.9279999732971191"/>
                <iidm:step r="-12.390401963806141" x="-12.390401963806141" g="14.142744906428328" b="14.142744906428328" rho="0.9359999895095825"/>
                <iidm:step r="-10.886398919677731" x="-10.886398919677731" g="12.216315789848187" b="12.216315789848187" rho="0.9440000057220459"/>
                <iidm:step r="-9.369595823669385" x="-9.369595823669385" g="10.33824786375208" b="10.33824786375208" rho="0.9520000219345093"/>
                <iidm:step r="-7.840004119873001" x="-7.840004119873001" g="8.506949295083022" b="8.506949295083022" rho="0.9599999785423279"/>
                <iidm:step r="-6.297601015472409" x="-6.297601015472409" g="6.720853557348394" b="6.720853557348394" rho="0.9679999947547913"/>
                <iidm:step r="-4.7423978591918825" x="-4.7423978591918825" g="4.978498043843005" b="4.978498043843005" rho="0.9760000109672546"/>
                <iidm:step r="-3.1743946510314203" x="-3.1743946510314203" g="3.2784661036619367" b="3.2784661036619367" rho="0.984000027179718"/>
                <iidm:step r="-1.593603216552708" x="-1.593603216552708" g="1.6194101894204893" b="1.6194101894204893" rho="0.9919999837875366"/>
                <iidm:step r="0.0" x="0.0" g="0.0" b="0.0" rho="1.0"/>
                <iidm:step r="1.6064032684326435" x="1.6064032684326435" g="-1.581005937380453" b="-1.581005937380453" rho="1.0080000162124634"/>
                <iidm:step r="3.2256065887452223" x="3.2256065887452223" g="-3.124812433019808" b="-3.124812433019808" rho="1.0160000324249268"/>
                <iidm:step r="4.857609960937737" x="4.857609960937737" g="-4.632577418794237" b="-4.632577418794237" rho="1.0240000486373901"/>
                <iidm:step r="6.502388780212698" x="6.502388780212698" g="-6.105392427987299" b="-6.105392427987299" rho="1.031999945640564"/>
                <iidm:step r="8.159992065429833" x="8.159992065429833" g="-7.544371915720527" b="-7.544371915720527" rho="1.0399999618530273"/>
                <iidm:step r="9.830395402526904" x="9.830395402526904" g="-8.95052354723721" b="-8.95052354723721" rho="1.0479999780654907"/>
                <iidm:step r="11.51359879150391" x="11.51359879150391" g="-10.324838330283637" b="-10.324838330283637" rho="1.055999994277954"/>
                <iidm:step r="13.20960223236085" x="13.20960223236085" g="-11.668270157197757" b="-11.668270157197757" rho="1.0640000104904175"/>
                <iidm:step r="14.918405725097728" x="14.918405725097728" g="-12.981737460563814" b="-12.981737460563814" rho="1.0720000267028809"/>
                <iidm:step r="16.64000926971454" x="16.64000926971454" g="-14.266124783338041" b="-14.266124783338041" rho="1.0800000429153442"/>
                <iidm:step r="18.374412866211287" x="18.374412866211287" g="-15.522284268457875" b="-15.522284268457875" rho="1.0880000591278076"/>
                <iidm:step r="20.121590383911325" x="20.121590383911325" g="-16.751018963037588" b="-16.751018963037588" rho="1.0959999561309814"/>
                <iidm:step r="21.881593893432694" x="21.881593893432694" g="-17.953156989860908" b="-17.953156989860908" rho="1.1039999723434448"/>
                <iidm:step r="23.654397454833997" x="23.654397454833997" g="-19.129442981171785" b="-19.129442981171785" rho="1.1119999885559082"/>
                <iidm:step r="25.440001068115237" x="25.440001068115237" g="-20.2806129237045" b="-20.2806129237045" rho="1.1200000047683716"/>
                <iidm:step r="27.23840473327641" x="27.23840473327641" g="-21.40737679820408" b="-21.40737679820408" rho="1.128000020980835"/>
            </iidm:ratioTapChanger>
        </iidm:twoWindingsTransformer>
    </iidm:substation>
</iidm:network>